reduced_networks/ieee34/51pct/dss/Branches.dss
! Radial Kron-equivalent series elements
new Reactor.kr_2_3 phases=3 bus1=800.1.2.3 bus2=806.1.2.3 rmatrix=[1.091212596131411 | 0.1715018062072682 1.080600862400391 | 0.1738690173437276 0.1686447686143447 1.085172060645673] xmatrix=[1.089172923125626 | 0.471732464087069 1.107620995349732 | 0.4093681403602664 0.3747575715268166 1.099621375746329]
new Reactor.kr_3_4 phases=3 bus1=806.1.2.3 bus2=808.1.2.3 rmatrix=[8.160049994140005 | 1.282485427409998 8.080695834309999 | 1.30018749707 1.261120837240002 8.114879165689993] xmatrix=[8.144789572590005 | 3.52759793034 8.282743738279999 | 3.061239596030002 2.802422930340002 8.222922924479994]
new Reactor.kr_4_5 phases=3 bus1=808.1.2.3 bus2=812.1.2.3 rmatrix=[9.494318175000002 | 1.492187512499996 9.401988637500001 | 1.512784087499998 1.467329549999998 9.441761362500005] xmatrix=[9.476562487500001 | 4.104403424999998 9.637073850000004 | 3.5617897875 3.260653424999999 9.567471600000005]
new Reactor.kr_5_6 phases=3 bus1=812.1.2.3 bus2=814.1.2.3 rmatrix=[7.527095449139997 | 1.183006259910002 7.45389659181 | 1.19933522457 1.163298867239999 7.485428408189999] xmatrix=[7.513018740089999 | 3.253971035339999 7.640272148279998 | 2.823786943529999 2.58504603534 7.585091484479998]
new Reactor.kr_6_7 phases=2 bus1=814.1.2 bus2=814r.1.2 rmatrix=[-3.86575067808001 | 0 6.990591643199722] xmatrix=[-9.664376695200145 | -0 17.47647910799985]
new Reactor.kr_7_8 phases=3 bus1=814r.1.2.3 bus2=816.1.2.3 rmatrix=[0.116969696882194 | 0.01410303037936354 0.1161030303227805 | 0.01429696957776773 0.01386666653737222 0.1164787877614782] xmatrix=[0.0855454544275777 | 0.03904242429717512 0.08655151522482919 | 0.03449090910348404 0.03174545438717286 0.08611515138414691]
new Reactor.kr_8_9 phases=1 bus1=816.1 bus2=818.1 rmatrix=[0.9066556799999999] xmatrix=[0.4810999500000001]
new Reactor.kr_8_10 phases=3 bus1=816.1.2.3 bus2=824.1.2.3 rmatrix=[3.732064393629999 | 0.4499748137000019 3.7044123137 | 0.4561626863000005 0.4424333299300002 3.716401324519999] xmatrix=[2.72943465445 | 1.245697350960001 2.76153428185 | 1.10047556911 1.01287840445 2.74761154808]
new Reactor.kr_9_11 phases=1 bus1=818.1 bus2=820.1 rmatrix=[25.5295152] xmatrix=[13.54676175000001]
new Reactor.kr_10_12 phases=3 bus1=824.1.2.3 bus2=830.1.2.3 rmatrix=[7.778456190654069 | 0.9378439208625847 7.720823080447947 | 0.9507402898933338 0.922124992055275 7.745810470541739] xmatrix=[5.688782874894811 | 2.596312810515668 5.7556849057849 | 2.293639373389933 2.111067993160269 5.726666459149535]
new Reactor.kr_12_17 phases=3 bus1=830.1.2.3 bus2=852.1.2.3 rmatrix=[13.65249686723887 | 1.646053109286099 13.55127472546903 | 1.668704935455936 1.618466611056615 13.59519882339589] xmatrix=[9.984773763880007 | 4.556960424553811 10.10222348307165 | 4.025720244949971 3.705276535068503 10.0512673875286]
new Reactor.kr_13_14 phases=3 bus1=832.1.2.3 bus2=834.1.2.3 rmatrix=[3.922108872195843 | 0.4728837736988812 3.893055479342273 | 0.4793864909258353 0.4649592934109698 3.9056547351786] xmatrix=[2.868456840661955 | 1.309133626416916 2.902187686853659 | 1.15651773080883 1.064460390247057 2.887555774065347]
new Reactor.kr_13_15 phases=3 bus1=832.1.2.3 bus2=852r.1.2.3 rmatrix=[0.003655303029999999 | 0.0004407197000000007 0.003628219700000001 | 0.0004467802999999999 0.000433333330000002 0.003639962120000001] xmatrix=[0.002673295449999999 | 0.001220075759999999 0.002704734849999999 | 0.00107784091 0.0009920454500000006 0.00269109848]
new Reactor.kr_15_17 phases=2 bus1=852r.2.3 bus2=852.2.3 rmatrix=[-3.821187593880203 | 0 -7.687067440320495] xmatrix=[-9.552968984700229 | -0 -19.21766860080011]
new Reactor.kr_16_18 phases=3 bus1=888.1.2.3 bus2=890.1.2.3 rmatrix=[2.673599998080005 | 0.4202000035199988 2.647600000320001 | 0.4259999990400017 0.4132000012799983 2.658799999679999] xmatrix=[2.668599996480001 | 1.155800004479999 2.71379999616 | 1.003000004160002 0.9182000044800036 2.694200002560005]
